Version 4.1
SHEET 1 2212 680
WIRE 0 -400 -80 -400
WIRE -80 -368 -80 -400
WIRE 1136 -368 944 -368
WIRE 1152 -368 1136 -368
WIRE 944 -336 944 -368
WIRE 768 -144 752 -144
WIRE 896 -144 768 -144
WIRE 1232 -144 976 -144
WIRE 1280 -144 1232 -144
WIRE 1456 -144 1280 -144
WIRE 640 -128 496 -128
WIRE 1232 -128 1232 -144
WIRE 752 -96 752 -144
WIRE 1568 -32 1568 -80
WIRE 1536 -16 1472 -16
WIRE 1712 0 1600 0
WIRE 1760 0 1712 0
WIRE 1456 16 1456 -144
WIRE 1536 16 1456 16
WIRE 752 48 752 -16
WIRE 480 64 160 64
WIRE 640 80 640 -128
WIRE 640 80 592 80
WIRE 160 96 160 64
WIRE 480 96 480 64
WIRE 528 96 480 96
WIRE 640 112 592 112
WIRE 1024 128 1024 80
WIRE 1024 128 960 128
WIRE 656 144 592 144
WIRE 832 144 656 144
WIRE 1008 160 960 160
WIRE 832 176 784 176
WIRE 1040 192 960 192
WIRE 1104 192 1040 192
WIRE 1248 192 1184 192
WIRE 1472 192 1472 -16
WIRE 1472 192 1248 192
WIRE 656 208 656 144
WIRE 784 272 784 176
WIRE 1040 272 1040 192
WIRE 1040 272 784 272
FLAG 160 176 0
FLAG 416 -128 0
FLAG -80 -288 0
FLAG 0 -400 VIN
FLAG 528 128 VIN
FLAG 656 272 0
FLAG 1248 192 S/H
FLAG 1008 160 0
FLAG 1024 80 VIN
FLAG 640 112 0
FLAG 752 48 0
FLAG 768 -144 DAC_RAW
FLAG 1232 -64 0
FLAG 1280 -144 DAC_OUT
FLAG 1568 32 0
FLAG 1568 -80 VIN
FLAG 1712 0 COMP_OUT
FLAG 944 -256 0
FLAG 1136 -368 D_WORD
SYMBOL OPAx320-Q1 896 160 R0
SYMATTR InstName U1
SYMBOL ADG701 560 112 R0
SYMATTR InstName U2
SYMBOL bv 752 -112 R0
SYMATTR InstName B1
SYMATTR Value V = (V(D_WORD) / 4096) * 3.3
SYMBOL voltage 160 80 R0
WINDOW 123 0 0 Left 0
WINDOW 39 0 0 Left 0
SYMATTR InstName V1
SYMATTR Value SINE(0.5 0.5 2)
SYMBOL voltage 512 -128 R90
WINDOW 3 -66 -123 VRight 2
WINDOW 123 0 0 Left 0
WINDOW 39 0 0 Left 0
SYMATTR InstName V2
SYMATTR Value PULSE(3.3 0 1m 1n 1n 10m 20m)
SYMBOL voltage -80 -384 R0
SYMATTR InstName V3
SYMATTR Value 3.3
SYMBOL cap 640 208 R0
SYMATTR InstName C1
SYMATTR Value 1n
SYMBOL res 1200 176 R90
WINDOW 0 0 56 VBottom 2
WINDOW 3 32 56 VTop 2
SYMATTR InstName R1
SYMATTR Value 100
SYMBOL res 992 -160 R90
WINDOW 0 0 56 VBottom 2
WINDOW 3 32 56 VTop 2
SYMATTR InstName R2
SYMATTR Value 2000
SYMBOL cap 1216 -128 R0
SYMATTR InstName C2
SYMATTR Value 1n
SYMBOL OpAmps\\UniversalOpAmp2 1568 0 R0
SYMATTR InstName U3
SYMBOL voltage 944 -352 R0
WINDOW 123 0 0 Left 0
WINDOW 39 0 0 Left 0
SYMATTR InstName V4
SYMATTR Value PWL(0 0 1.099m 0 1.1m 2048 1.1199m 2048 1.12m 512 1.1399m 512 1.14m 768 1.1599m 768 1.16m 640)
TEXT -112 296 Left 2 !.tran 10m
