Version 4.1
SHEET 1 1804 680
WIRE 128 16 16 16
WIRE 288 16 208 16
WIRE 432 16 288 16
WIRE 16 32 16 16
WIRE 288 48 288 16
WIRE 432 48 432 16
WIRE 144 80 144 64
WIRE 16 128 16 112
WIRE 192 128 192 64
WIRE 288 144 288 112
WIRE 432 144 432 128
WIRE 96 192 16 192
WIRE 192 192 192 128
WIRE 192 192 176 192
WIRE 16 240 16 192
FLAG 16 128 0
FLAG 288 144 0
FLAG 288 16 vhold
FLAG 432 144 0
FLAG 144 80 0
FLAG 16 240 0
FLAG 192 128 ctrl
SYMBOL voltage 16 16 R0
WINDOW 123 0 0 Left 0
WINDOW 39 0 0 Left 0
SYMATTR InstName V1
SYMATTR Value 2.5
SYMBOL sw 112 16 R270
SYMATTR InstName S1
SYMATTR Value MYSW
SYMBOL cap 272 48 R0
SYMATTR InstName C1
SYMATTR Value 1n
SYMBOL res 416 32 R0
SYMATTR InstName R1
SYMATTR Value 10Meg
SYMBOL voltage 192 192 R90
WINDOW 0 -32 56 VBottom 2
WINDOW 3 35 -39 VTop 2
WINDOW 123 0 0 Left 0
WINDOW 39 0 0 Left 0
SYMATTR InstName ctrl
SYMATTR Value PULSE(0 1 0 1u 1u 100u 200u)
SYMBOL cap 1232 272 R0
SYMATTR InstName C_MSB1
SYMATTR Value 2p
SYMBOL cap 1424 272 R0
SYMATTR InstName C2
TEXT 0 328 Left 2 !.model MYSW SW(Ron=1 Roff=1e9 Vt=0.5 Vh=0)
TEXT 0 360 Left 2 !.tran 1m
TEXT -104 -56 Left 5 ;S/H
TEXT 1184 192 Left 2 ;Trial Voltage
RECTANGLE Normal 976 416 -144 -112 1
