Version 4.1
SHEET 1 3480 744
WIRE 2400 -64 2304 -64
WIRE 3008 -64 2704 -64
WIRE 1776 -16 1488 -16
WIRE 2400 -16 2400 -64
WIRE 3008 -16 3008 -64
WIRE 1776 16 1776 -16
WIRE 560 48 288 48
WIRE 352 96 80 96
WIRE 2704 96 2704 -64
WIRE 2704 96 2592 96
WIRE 2832 96 2704 96
WIRE 80 144 80 96
WIRE 112 144 80 144
WIRE 288 144 288 48
WIRE 288 144 256 144
WIRE 2304 144 2304 -64
WIRE 2304 144 2176 144
WIRE 1776 160 1776 96
WIRE 1904 160 1776 160
WIRE 2048 160 1904 160
WIRE 2592 160 2592 96
WIRE 112 176 32 176
WIRE 352 176 352 96
WIRE 352 176 256 176
WIRE 416 176 352 176
WIRE 560 176 560 128
WIRE 560 176 416 176
WIRE 1488 176 1488 -16
WIRE 1776 176 1776 160
WIRE 2240 176 2176 176
WIRE 1904 192 1904 160
WIRE 2048 192 2000 192
WIRE 112 208 -48 208
WIRE 496 208 256 208
WIRE 576 208 496 208
WIRE 688 208 576 208
WIRE 768 208 688 208
WIRE 832 208 768 208
WIRE 896 208 832 208
WIRE 2288 208 2176 208
WIRE 2528 208 2368 208
WIRE 496 224 496 208
WIRE 576 224 576 208
WIRE 688 224 688 208
WIRE 768 224 768 208
WIRE 2832 240 2832 96
WIRE -48 256 -48 208
WIRE 2592 288 2592 256
WIRE 2768 288 2592 288
WIRE 1488 304 1488 256
WIRE 32 320 32 176
WIRE 496 320 496 288
WIRE 496 320 32 320
WIRE 576 320 576 304
WIRE 576 320 496 320
WIRE 768 320 768 288
WIRE 1904 320 1904 256
WIRE 576 336 576 320
WIRE 416 352 416 176
WIRE 2832 352 2832 336
WIRE 3008 352 2832 352
WIRE 3120 352 3008 352
WIRE 3264 352 3120 352
WIRE 3408 352 3264 352
WIRE 2832 368 2832 352
WIRE 3008 384 3008 352
WIRE 3120 384 3120 352
WIRE 3264 384 3264 352
WIRE 416 448 416 416
WIRE 576 448 576 416
WIRE 3120 480 3120 448
WIRE 352 496 352 176
WIRE 2000 496 2000 192
WIRE 2832 496 2832 448
WIRE 2832 496 2000 496
WIRE 3008 496 3008 448
WIRE 3264 496 3264 464
WIRE 2832 544 2832 496
WIRE 352 608 352 576
WIRE 2832 640 2832 624
FLAG 576 448 0
FLAG -48 256 0
FLAG 768 320 0
FLAG 352 608 0
FLAG 832 208 Vboost
FLAG 416 448 0
FLAG 688 288 0
FLAG 2240 176 0
FLAG 1488 304 0
FLAG 2832 640 0
FLAG 3120 480 0
FLAG 3264 496 0
FLAG 3408 352 Vout
FLAG 2400 -16 Vboost
FLAG 3008 -16 Vboost
FLAG 1904 320 0
FLAG 3008 496 0
SYMBOL TPS61023_schematic 176 176 R0
SYMATTR InstName U1
SYMBOL res 560 208 R0
SYMATTR InstName R1
SYMATTR Value 732k
SYMBOL res 560 320 R0
SYMATTR InstName R2
SYMATTR Value 100k
SYMBOL ind 544 32 R0
SYMATTR InstName L1
SYMATTR Value 1µ
SYMATTR SpiceLine Rser=1m
SYMBOL cap 752 224 R0
SYMATTR InstName C2
SYMATTR Value 10µ
SYMBOL voltage 352 480 R0
WINDOW 123 0 0 Left 0
WINDOW 39 0 0 Left 0
SYMATTR InstName V1
SYMATTR Value 3.7
SYMBOL cap 400 352 R0
SYMATTR InstName C1
SYMATTR Value 10µF
SYMBOL cap 672 224 R0
SYMATTR InstName C3
SYMATTR Value 10µ
SYMBOL res 1760 0 R0
SYMATTR InstName R4
SYMATTR Value 240
SYMBOL voltage 1488 160 R0
WINDOW 123 0 0 Left 0
WINDOW 39 0 0 Left 0
SYMATTR InstName V2
SYMATTR Value 3.7
SYMBOL TLV9102 2112 176 R0
SYMATTR InstName U2
SYMBOL res 2384 192 R90
WINDOW 0 0 56 VBottom 2
WINDOW 3 32 56 VTop 2
SYMATTR InstName R9
SYMATTR Value 100
SYMBOL npn 2528 160 R0
SYMATTR InstName Q1
SYMATTR Value 2N3904
SYMBOL npn 2768 240 R0
SYMATTR InstName Q2
SYMATTR Value 2N3904
SYMBOL res 2816 352 R0
SYMATTR InstName R6
SYMATTR Value 3.9k
SYMBOL res 2816 528 R0
SYMATTR InstName R7
SYMATTR Value 10k
SYMBOL cap 3104 384 R0
SYMATTR InstName C4
SYMATTR Value 4.7µ
SYMBOL res 3248 368 R0
SYMATTR InstName R8
SYMATTR Value 33
SYMBOL zener 1920 256 R180
WINDOW 0 24 64 Left 2
WINDOW 3 24 0 Left 2
SYMATTR InstName D1
SYMATTR Value 1N5221B
SYMBOL cap 2992 384 R0
SYMATTR InstName C5
SYMATTR Value 4.7µ
TEXT -64 632 Left 2 !.tran 10m uic
TEXT -840 -32 Left 2 !.inc TPS61023_TRANS.LIB
TEXT -808 112 Left 2 !.param SS=0
TEXT -64 672 Left 2 !.meas TRAN Vmax1 MAX V(Vboost) FROM 1m TO 3m\n.meas TRAN Vmin1 MIN V(Vboost) FROM 1m TO 3m\n.meas TRAN Vripple1 PARAM Vmax - Vmin
TEXT 1368 464 Left 2 !.inc tlv9102.lib
TEXT 1400 640 Left 2 !.meas TRAN Vmax MAX V(Vout) FROM 5m TO 10m\n.meas TRAN Vmin MIN V(Vout) FROM 5m to 10m\n.meas TRAN Vripple PARAM Vmax - Vmin
TEXT 1184 -176 Left 2 !.model 1N5221B D(Is=1.23n Rs=1.58 N=1.27 Cjo=150p VJ=0.75 M=0.33 BV=2.4 IBV=20m)
