Version 4.1
SHEET 1 964 744
WIRE 560 48 288 48
WIRE 352 96 80 96
WIRE 80 144 80 96
WIRE 112 144 80 144
WIRE 288 144 288 48
WIRE 288 144 256 144
WIRE 112 176 32 176
WIRE 352 176 352 96
WIRE 352 176 256 176
WIRE 416 176 352 176
WIRE 560 176 560 128
WIRE 560 176 416 176
WIRE 112 208 -48 208
WIRE 496 208 256 208
WIRE 576 208 496 208
WIRE 688 208 576 208
WIRE 768 208 688 208
WIRE 832 208 768 208
WIRE 880 208 832 208
WIRE 896 208 880 208
WIRE 496 224 496 208
WIRE 576 224 576 208
WIRE 688 224 688 208
WIRE 768 224 768 208
WIRE -48 256 -48 208
WIRE 880 272 880 208
WIRE 32 320 32 176
WIRE 496 320 496 288
WIRE 496 320 32 320
WIRE 576 320 576 304
WIRE 576 320 496 320
WIRE 768 320 768 288
WIRE 576 336 576 320
WIRE 416 352 416 176
WIRE 880 368 880 352
WIRE 416 448 416 416
WIRE 576 448 576 416
WIRE 352 496 352 176
WIRE 352 608 352 576
FLAG 576 448 0
FLAG -48 256 0
FLAG 768 320 0
FLAG 352 608 0
FLAG 832 208 Vout
FLAG 416 448 0
FLAG 880 368 0
FLAG 688 288 0
SYMBOL TPS61023_schematic 176 176 R0
SYMATTR InstName U1
SYMBOL res 560 208 R0
SYMATTR InstName R1
SYMATTR Value 732k
SYMBOL res 560 320 R0
SYMATTR InstName R2
SYMATTR Value 100k
SYMBOL ind 544 32 R0
SYMATTR InstName L1
SYMATTR Value 1”
SYMATTR SpiceLine Rser=1m
SYMBOL cap 752 224 R0
SYMATTR InstName C2
SYMATTR Value 10”
SYMBOL voltage 352 480 R0
WINDOW 123 0 0 Left 0
WINDOW 39 0 0 Left 0
SYMATTR InstName V1
SYMATTR Value 3.7
SYMBOL cap 400 352 R0
SYMATTR InstName C1
SYMATTR Value 10”F
SYMBOL res 864 256 R0
SYMATTR InstName R3
SYMATTR Value 50
SYMBOL cap 672 224 R0
SYMATTR InstName C3
SYMATTR Value 47”
TEXT -64 632 Left 2 !.tran 5m startup
TEXT -840 -32 Left 2 !.inc TPS61023_TRANS.LIB
TEXT -808 112 Left 2 !.param SS=0
TEXT -64 672 Left 2 !.meas TRAN Vmax MAX V(Vout) FROM 1m TO 3m\n.meas TRAN Vmin MIN V(Vout) FROM 1m TO 3m\n.meas TRAN Vripple PARAM Vmax - Vmin
